Network_data/Network_model/Feeder2/OpenDSS_Lines.txt
New Line.Feeder2_LINE1 Bus1=secondary Bus2=Feeder2_44 Linecode=3c_300_SAC_XC Length=0.072975 phases=3 Units=km
New Line.Feeder2_LINE2 Bus1=Feeder2_44 Bus2=Feeder2_45 Linecode=3c_300_SAC_XC Length=0.002567 phases=3 Units=km
New Line.Feeder2_LINE3 Bus1=Feeder2_44 Bus2=Feeder2_46 Linecode=25_SAC_XC Length=0.014093 phases=3 Units=km
New Line.Feeder2_LINE4 Bus1=Feeder2_45 Bus2=Feeder2_51 Linecode=3c_300_SAC_XC Length=0.0044564 phases=3 Units=km
New Line.Feeder2_LINE5 Bus1=Feeder2_45 Bus2=Feeder2_48 Linecode=25_SAC_XC Length=0.013307 phases=3 Units=km
New Line.Feeder2_LINE6 Bus1=Feeder2_51 Bus2=Feeder2_52 Linecode=25_SAC_XC Length=0.015654 phases=3 Units=km
New Line.Feeder2_LINE7 Bus1=Feeder2_51 Bus2=Feeder2_68 Linecode=3c_300_SAC_XC Length=0.012537 phases=3 Units=km
New Line.Feeder2_LINE8 Bus1=Feeder2_68 Bus2=Feeder2_69 Linecode=25_SAC_XC Length=0.015094 phases=3 Units=km
New Line.Feeder2_LINE9 Bus1=Feeder2_68 Bus2=Feeder2_71 Linecode=3c_300_SAC_XC Length=0.0016599 phases=3 Units=km
New Line.Feeder2_LINE10 Bus1=Feeder2_71 Bus2=Feeder2_72 Linecode=25_SAC_XC Length=0.01993 phases=3 Units=km
New Line.Feeder2_LINE11 Bus1=Feeder2_71 Bus2=Feeder2_73 Linecode=3c_300_SAC_XC Length=0.0051937 phases=3 Units=km
New Line.Feeder2_LINE12 Bus1=Feeder2_73 Bus2=Feeder2_74 Linecode=25_SAC_XC Length=0.01322 phases=3 Units=km
New Line.Feeder2_LINE13 Bus1=Feeder2_73 Bus2=Feeder2_77 Linecode=3c_300_SAC_XC Length=0.0044537 phases=3 Units=km
New Line.Feeder2_LINE14 Bus1=Feeder2_77 Bus2=Feeder2_79 Linecode=25_SAC_XC Length=0.0086205 phases=3 Units=km
New Line.Feeder2_LINE15 Bus1=Feeder2_77 Bus2=Feeder2_81 Linecode=3c_300_SAC_XC Length=0.0070393 phases=3 Units=km
New Line.Feeder2_LINE16 Bus1=Feeder2_81 Bus2=Feeder2_82 Linecode=25_SAC_XC Length=0.013739 phases=3 Units=km
New Line.Feeder2_LINE17 Bus1=Feeder2_81 Bus2=Feeder2_116 Linecode=3c_300_SAC_XC Length=0.031572 phases=3 Units=km
New Line.Feeder2_LINE18 Bus1=Feeder2_116 Bus2=Feeder2_119 Linecode=25_SAC_XC Length=0.0098345 phases=3 Units=km
New Line.Feeder2_LINE19 Bus1=Feeder2_116 Bus2=Feeder2_120 Linecode=3c_300_SAC_XC Length=0.011698 phases=3 Units=km
New Line.Feeder2_LINE20 Bus1=Feeder2_120 Bus2=Feeder2_248 Linecode=35_SAC_XC Length=0.011791 phases=3 Units=km
New Line.Feeder2_LINE21 Bus1=Feeder2_120 Bus2=Feeder2_124 Linecode=3c_300_SAC_XC Length=0.0071966 phases=3 Units=km
New Line.Feeder2_LINE22 Bus1=Feeder2_124 Bus2=Feeder2_282 Linecode=35_SAC_XC Length=0.013517 phases=3 Units=km
New Line.Feeder2_LINE23 Bus1=Feeder2_124 Bus2=Feeder2_275 Linecode=35_SAC_XC Length=0.012653 phases=3 Units=km
New Line.Feeder2_LINE24 Bus1=Feeder2_124 Bus2=Feeder2_151 Linecode=3c_300_SAC_XC Length=0.012529 phases=3 Units=km
New Line.Feeder2_LINE25 Bus1=Feeder2_151 Bus2=Feeder2_295 Linecode=35_SAC_XC Length=0.009199 phases=3 Units=km
New Line.Feeder2_LINE26 Bus1=Feeder2_151 Bus2=Feeder2_311 Linecode=35_SAC_XC Length=0.011397 phases=3 Units=km
New Line.Feeder2_LINE27 Bus1=Feeder2_151 Bus2=Feeder2_201 Linecode=3c_300_SAC_XC Length=0.020865 phases=3 Units=km
New Line.Feeder2_LINE28 Bus1=Feeder2_201 Bus2=Feeder2_314 Linecode=35_SAC_XC Length=0.0094605 phases=3 Units=km
New Line.Feeder2_LINE29 Bus1=Feeder2_201 Bus2=Feeder2_342 Linecode=3c_300_SAC_XC Length=0.029637 phases=3 Units=km
New Line.Feeder2_LINE30 Bus1=Feeder2_342 Bus2=Feeder2_368 Linecode=3c_185_SAC_XC Length=0.0070652 phases=3 Units=km
New Line.Feeder2_LINE31 Bus1=Feeder2_342 Bus2=Feeder2_347 Linecode=3c_300_SAC_XC Length=0.014551 phases=3 Units=km
New Line.Feeder2_LINE32 Bus1=Feeder2_347 Bus2=Feeder2_353 Linecode=3c_300_SAC_XC Length=0.0072453 phases=3 Units=km
New Line.Feeder2_LINE33 Bus1=Feeder2_347 Bus2=Feeder2_518 Linecode=35_SAC_XC Length=0.009127 phases=3 Units=km
New Line.Feeder2_LINE34 Bus1=Feeder2_353 Bus2=Feeder2_365 Linecode=3c_300_SAC_XC Length=0.0080382 phases=3 Units=km
New Line.Feeder2_LINE35 Bus1=Feeder2_353 Bus2=Feeder2_653 Linecode=35_SAC_XC Length=0.010107 phases=3 Units=km
New Line.Feeder2_LINE36 Bus1=Feeder2_365 Bus2=Feeder2_377 Linecode=3c_300_SAC_XC Length=0.0043665 phases=3 Units=km
New Line.Feeder2_LINE37 Bus1=Feeder2_365 Bus2=Feeder2_622 Linecode=35_SAC_XC Length=0.011183 phases=3 Units=km
New Line.Feeder2_LINE38 Bus1=Feeder2_368 Bus2=Feeder2_451 Linecode=35_SAC_XC Length=0.01032 phases=3 Units=km
New Line.Feeder2_LINE39 Bus1=Feeder2_368 Bus2=Feeder2_383 Linecode=3c_185_SAC_XC Length=0.01143 phases=3 Units=km
New Line.Feeder2_LINE40 Bus1=Feeder2_377 Bus2=Feeder2_385 Linecode=3c_300_SAC_XC Length=0.0050298 phases=3 Units=km
New Line.Feeder2_LINE41 Bus1=Feeder2_377 Bus2=Feeder2_621 Linecode=35_SAC_XC Length=0.0097719 phases=3 Units=km
New Line.Feeder2_LINE42 Bus1=Feeder2_383 Bus2=Feeder2_611 Linecode=35_SAC_XC Length=0.0099612 phases=3 Units=km
New Line.Feeder2_LINE43 Bus1=Feeder2_383 Bus2=Feeder2_405 Linecode=3c_185_SAC_XC Length=0.00071457 phases=3 Units=km
New Line.Feeder2_LINE44 Bus1=Feeder2_385 Bus2=Feeder2_461 Linecode=3c_300_SAC_XC Length=0.020426 phases=3 Units=km
New Line.Feeder2_LINE45 Bus1=Feeder2_385 Bus2=Feeder2_594 Linecode=35_SAC_XC Length=0.0077063 phases=3 Units=km
New Line.Feeder2_LINE46 Bus1=Feeder2_405 Bus2=Feeder2_732 Linecode=35_SAC_XC Length=0.018058 phases=3 Units=km
New Line.Feeder2_LINE47 Bus1=Feeder2_405 Bus2=Feeder2_417 Linecode=3c_185_SAC_XC Length=0.0053831 phases=3 Units=km
New Line.Feeder2_LINE48 Bus1=Feeder2_417 Bus2=Feeder2_663 Linecode=35_SAC_XC Length=0.0097227 phases=3 Units=km
New Line.Feeder2_LINE49 Bus1=Feeder2_417 Bus2=Feeder2_444 Linecode=3c_185_SAC_XC Length=0.0040919 phases=3 Units=km
New Line.Feeder2_LINE50 Bus1=Feeder2_444 Bus2=Feeder2_759 Linecode=35_SAC_XC Length=0.016434 phases=3 Units=km
New Line.Feeder2_LINE51 Bus1=Feeder2_444 Bus2=Feeder2_842 Linecode=35_SAC_XC Length=0.017841 phases=3 Units=km
New Line.Feeder2_LINE52 Bus1=Feeder2_444 Bus2=Feeder2_459 Linecode=3c_185_SAC_XC Length=0.0014314 phases=3 Units=km
New Line.Feeder2_LINE53 Bus1=Feeder2_459 Bus2=Feeder2_702 Linecode=35_SAC_XC Length=0.01003 phases=3 Units=km
New Line.Feeder2_LINE54 Bus1=Feeder2_459 Bus2=Feeder2_493 Linecode=3c_185_SAC_XC Length=0.0054311 phases=3 Units=km
New Line.Feeder2_LINE55 Bus1=Feeder2_461 Bus2=Feeder2_651 Linecode=35_SAC_XC Length=0.0097086 phases=3 Units=km
New Line.Feeder2_LINE56 Bus1=Feeder2_461 Bus2=Feeder2_684 Linecode=3c_300_SAC_XC Length=0.016624 phases=3 Units=km
New Line.Feeder2_LINE57 Bus1=Feeder2_493 Bus2=Feeder2_674 Linecode=35_SAC_XC Length=0.0026102 phases=3 Units=km
New Line.Feeder2_LINE58 Bus1=Feeder2_493 Bus2=Feeder2_696 Linecode=3c_185_SAC_XC Length=0.015712 phases=3 Units=km
New Line.Feeder2_LINE59 Bus1=Feeder2_674 Bus2=Feeder2_681 Linecode=35_SAC_XC Length=0.0071415 phases=3 Units=km
New Line.Feeder2_LINE60 Bus1=Feeder2_674 Bus2=Feeder2_682 Linecode=35_SAC_XC Length=0.010793 phases=3 Units=km
New Line.Feeder2_LINE61 Bus1=Feeder2_684 Bus2=Feeder2_728 Linecode=3c_185_SAC_XC Length=0.0066629 phases=3 Units=km
New Line.Feeder2_LINE62 Bus1=Feeder2_684 Bus2=Feeder2_724 Linecode=3c_300_SAC_XC Length=0.017024 phases=3 Units=km
New Line.Feeder2_LINE63 Bus1=Feeder2_696 Bus2=Feeder2_703 Linecode=35_SAC_XC Length=0.016227 phases=3 Units=km
New Line.Feeder2_LINE64 Bus1=Feeder2_696 Bus2=Feeder2_704 Linecode=35_SAC_XC Length=0.0042745 phases=3 Units=km
New Line.Feeder2_LINE65 Bus1=Feeder2_724 Bus2=Feeder2_754 Linecode=35_SAC_XC Length=0.0085265 phases=3 Units=km
New Line.Feeder2_LINE66 Bus1=Feeder2_724 Bus2=Feeder2_747 Linecode=3c_300_SAC_XC Length=0.0069545 phases=3 Units=km
New Line.Feeder2_LINE67 Bus1=Feeder2_728 Bus2=Feeder2_828 Linecode=35_SAC_XC Length=0.0048205 phases=3 Units=km
New Line.Feeder2_LINE68 Bus1=Feeder2_728 Bus2=Feeder2_763 Linecode=3c_185_SAC_XC Length=0.0098406 phases=3 Units=km
New Line.Feeder2_LINE69 Bus1=Feeder2_747 Bus2=Feeder2_836 Linecode=35_SAC_XC Length=0.0088515 phases=3 Units=km
New Line.Feeder2_LINE70 Bus1=Feeder2_747 Bus2=Feeder2_758 Linecode=3c_300_SAC_XC Length=0.0059847 phases=3 Units=km
New Line.Feeder2_LINE71 Bus1=Feeder2_758 Bus2=Feeder2_788 Linecode=35_SAC_XC Length=0.009512 phases=3 Units=km
New Line.Feeder2_LINE72 Bus1=Feeder2_758 Bus2=Feeder2_812 Linecode=3c_300_SAC_XC Length=0.018424 phases=3 Units=km
New Line.Feeder2_LINE73 Bus1=Feeder2_763 Bus2=Feeder2_947 Linecode=35_SAC_XC Length=0.020408 phases=3 Units=km
New Line.Feeder2_LINE74 Bus1=Feeder2_763 Bus2=Feeder2_868 Linecode=35_SAC_XC Length=0.0060868 phases=3 Units=km
New Line.Feeder2_LINE75 Bus1=Feeder2_763 Bus2=Feeder2_785 Linecode=3c_185_SAC_XC Length=0.0059008 phases=3 Units=km
New Line.Feeder2_LINE76 Bus1=Feeder2_785 Bus2=Feeder2_1176 Linecode=35_SAC_XC Length=0.021052 phases=3 Units=km
New Line.Feeder2_LINE77 Bus1=Feeder2_785 Bus2=Feeder2_846 Linecode=35_SAC_XC Length=0.0076491 phases=3 Units=km
New Line.Feeder2_LINE78 Bus1=Feeder2_785 Bus2=Feeder2_911 Linecode=3c_185_SAC_XC Length=0.013095 phases=3 Units=km
New Line.Feeder2_LINE79 Bus1=Feeder2_812 Bus2=Feeder2_1107 Linecode=3c_300_SAC_XC Length=0.018712 phases=3 Units=km
New Line.Feeder2_LINE80 Bus1=Feeder2_812 Bus2=Feeder2_920 Linecode=3c_300_SAC_XC Length=0.0051641 phases=3 Units=km
New Line.Feeder2_LINE81 Bus1=Feeder2_920 Bus2=Feeder2_926 Linecode=3c_300_SAC_XC Length=0.007698 phases=3 Units=km
New Line.Feeder2_LINE82 Bus1=Feeder2_920 Bus2=Feeder2_1239 Linecode=3c_300_SAC_XC Length=0.0090912 phases=3 Units=km
New Line.Feeder2_LINE83 Bus1=Feeder2_926 Bus2=Feeder2_933 Linecode=3c_300_SAC_XC Length=0.0034091 phases=3 Units=km
New Line.Feeder2_LINE84 Bus1=Feeder2_926 Bus2=Feeder2_1146 Linecode=3c_300_SAC_XC Length=0.016066 phases=3 Units=km
New Line.Feeder2_LINE85 Bus1=Feeder2_933 Bus2=Feeder2_1124 Linecode=35_SAC_XC Length=0.0061521 phases=3 Units=km
New Line.Feeder2_LINE86 Bus1=Feeder2_933 Bus2=Feeder2_942 Linecode=3c_300_SAC_XC Length=0.0086333 phases=3 Units=km
New Line.Feeder2_LINE87 Bus1=Feeder2_942 Bus2=Feeder2_952 Linecode=3c_300_SAC_XC Length=0.012746 phases=3 Units=km
New Line.Feeder2_LINE88 Bus1=Feeder2_942 Bus2=Feeder2_965 Linecode=3c_300_SAC_XC Length=0.0016533 phases=3 Units=km
New Line.Feeder2_LINE89 Bus1=Feeder2_952 Bus2=Feeder2_961 Linecode=3c_300_SAC_XC Length=0.0013771 phases=3 Units=km
New Line.Feeder2_LINE90 Bus1=Feeder2_952 Bus2=Feeder2_963 Linecode=3c_300_SAC_XC Length=0.00029544 phases=3 Units=km
New Line.Feeder2_LINE91 Bus1=Feeder2_961 Bus2=Feeder2_973 Linecode=3c_300_SAC_XC Length=0.0073247 phases=3 Units=km
New Line.Feeder2_LINE92 Bus1=Feeder2_961 Bus2=Feeder2_1128 Linecode=3c_300_SAC_XC Length=0.012675 phases=3 Units=km
New Line.Feeder2_LINE93 Bus1=Feeder2_963 Bus2=Feeder2_1113 Linecode=35_SAC_XC Length=0.0045395 phases=3 Units=km
New Line.Feeder2_LINE94 Bus1=Feeder2_963 Bus2=Feeder2_1143 Linecode=3c_300_SAC_XC Length=0.020599 phases=3 Units=km
New Line.Feeder2_LINE95 Bus1=Feeder2_965 Bus2=Feeder2_1238 Linecode=35_SAC_XC Length=0.017387 phases=3 Units=km
New Line.Feeder2_LINE96 Bus1=Feeder2_965 Bus2=Feeder2_979 Linecode=3c_300_SAC_XC Length=0.0021638 phases=3 Units=km
New Line.Feeder2_LINE97 Bus1=Feeder2_973 Bus2=Feeder2_1236 Linecode=3c_300_SAC_XC Length=0.010947 phases=3 Units=km
New Line.Feeder2_LINE98 Bus1=Feeder2_973 Bus2=Feeder2_989 Linecode=3c_300_SAC_XC Length=9.8722e-05 phases=3 Units=km
New Line.Feeder2_LINE99 Bus1=Feeder2_979 Bus2=Feeder2_1196 Linecode=35_SAC_XC Length=0.0059364 phases=3 Units=km
New Line.Feeder2_LINE100 Bus1=Feeder2_989 Bus2=Feeder2_1158 Linecode=35_SAC_XC Length=0.008148 phases=3 Units=km
New Line.Feeder2_LINE101 Bus1=Feeder2_1107 Bus2=Feeder2_1122 Linecode=3c_300_SAC_XC Length=0.0072792 phases=3 Units=km
New Line.Feeder2_LINE102 Bus1=Feeder2_1107 Bus2=Feeder2_1258 Linecode=35_SAC_XC Length=0.0058633 phases=3 Units=km
New Line.Feeder2_LINE103 Bus1=Feeder2_1122 Bus2=Feeder2_1303 Linecode=35_SAC_XC Length=0.010675 phases=3 Units=km
New Line.Feeder2_LINE104 Bus1=Feeder2_1122 Bus2=Feeder2_1138 Linecode=3c_300_SAC_XC Length=0.0057366 phases=3 Units=km
New Line.Feeder2_LINE105 Bus1=Feeder2_1138 Bus2=Feeder2_1304 Linecode=35_SAC_XC Length=0.0098224 phases=3 Units=km
New Line.Feeder2_LINE106 Bus1=Feeder2_1138 Bus2=Feeder2_1212 Linecode=3c_300_SAC_XC Length=0.012137 phases=3 Units=km
New Line.Feeder2_LINE107 Bus1=Feeder2_1212 Bus2=Feeder2_1311 Linecode=35_SAC_XC Length=0.01197 phases=3 Units=km
New Line.Feeder2_LINE108 Bus1=Feeder2_1212 Bus2=Feeder2_1290 Linecode=3c_300_SAC_XC Length=0.014991 phases=3 Units=km
New Line.Feeder2_LINE109 Bus1=Feeder2_1236 Bus2=Feeder2_1325 Linecode=3c_300_SAC_XC Length=0.015008 phases=3 Units=km
New Line.Feeder2_LINE110 Bus1=Feeder2_1236 Bus2=Feeder2_1248 Linecode=35_SAC_XC Length=4.653e-05 phases=3 Units=km
New Line.Feeder2_LINE111 Bus1=Feeder2_1238 Bus2=Feeder2_1249 Linecode=35_SAC_XC Length=0.0050702 phases=3 Units=km
New Line.Feeder2_LINE112 Bus1=Feeder2_1238 Bus2=Feeder2_1250 Linecode=35_SAC_XC Length=0.012184 phases=3 Units=km
New Line.Feeder2_LINE113 Bus1=Feeder2_1248 Bus2=Feeder2_1366 Linecode=35_SAC_XC Length=0.012013 phases=3 Units=km
New Line.Feeder2_LINE114 Bus1=Feeder2_1258 Bus2=Feeder2_1266 Linecode=35_SAC_XC Length=0.0057994 phases=3 Units=km
New Line.Feeder2_LINE115 Bus1=Feeder2_1290 Bus2=Feeder2_1372 Linecode=35_SAC_XC Length=0.0074699 phases=3 Units=km
New Line.Feeder2_LINE116 Bus1=Feeder2_1290 Bus2=Feeder2_1363 Linecode=3c_300_SAC_XC Length=0.016076 phases=3 Units=km
New Line.Feeder2_LINE117 Bus1=Feeder2_1325 Bus2=Feeder2_1446 Linecode=35_SAC_XC Length=0.0085269 phases=3 Units=km
New Line.Feeder2_LINE118 Bus1=Feeder2_1325 Bus2=Feeder2_1502 Linecode=3c_300_SAC_XC Length=0.016882 phases=3 Units=km
New Line.Feeder2_LINE119 Bus1=Feeder2_1363 Bus2=Feeder2_1428 Linecode=35_SAC_XC Length=0.0080379 phases=3 Units=km
New Line.Feeder2_LINE120 Bus1=Feeder2_1363 Bus2=Feeder2_1380 Linecode=3c_300_SAC_XC Length=0.019512 phases=3 Units=km
New Line.Feeder2_LINE121 Bus1=Feeder2_1380 Bus2=Feeder2_1550 Linecode=35_SAC_XC Length=0.012447 phases=3 Units=km
New Line.Feeder2_LINE122 Bus1=Feeder2_1380 Bus2=Feeder2_1386 Linecode=3c_300_SAC_XC Length=0.0095212 phases=3 Units=km
New Line.Feeder2_LINE123 Bus1=Feeder2_1386 Bus2=Feeder2_1551 Linecode=35_SAC_XC Length=0.012898 phases=3 Units=km
New Line.Feeder2_LINE124 Bus1=Feeder2_1386 Bus2=Feeder2_1400 Linecode=3c_300_SAC_XC Length=0.0045242 phases=3 Units=km
New Line.Feeder2_LINE125 Bus1=Feeder2_1400 Bus2=Feeder2_1552 Linecode=35_SAC_XC Length=0.01199 phases=3 Units=km
New Line.Feeder2_LINE126 Bus1=Feeder2_1400 Bus2=Feeder2_1408 Linecode=3c_300_SAC_XC Length=0.0093657 phases=3 Units=km
New Line.Feeder2_LINE127 Bus1=Feeder2_1408 Bus2=Feeder2_1553 Linecode=35_SAC_XC Length=0.014354 phases=3 Units=km
New Line.Feeder2_LINE128 Bus1=Feeder2_1408 Bus2=Feeder2_1416 Linecode=3c_300_SAC_XC Length=0.0048749 phases=3 Units=km
New Line.Feeder2_LINE129 Bus1=Feeder2_1416 Bus2=Feeder2_1530 Linecode=35_SAC_XC Length=0.011639 phases=3 Units=km
New Line.Feeder2_LINE130 Bus1=Feeder2_1416 Bus2=Feeder2_1425 Linecode=3c_300_SAC_XC Length=0.0092898 phases=3 Units=km
New Line.Feeder2_LINE131 Bus1=Feeder2_1425 Bus2=Feeder2_1589 Linecode=35_SAC_XC Length=0.0129 phases=3 Units=km
New Line.Feeder2_LINE132 Bus1=Feeder2_1425 Bus2=Feeder2_1435 Linecode=3c_300_SAC_XC Length=0.0018702 phases=3 Units=km
New Line.Feeder2_LINE133 Bus1=Feeder2_1435 Bus2=Feeder2_1621 Linecode=35_SAC_XC Length=0.013003 phases=3 Units=km
New Line.Feeder2_LINE134 Bus1=Feeder2_1435 Bus2=Feeder2_1564 Linecode=3c_300_SAC_XC Length=0.022101 phases=3 Units=km
New Line.Feeder2_LINE135 Bus1=Feeder2_1502 Bus2=Feeder2_1704 Linecode=35_SAC_XC Length=0.0077687 phases=3 Units=km
New Line.Feeder2_LINE136 Bus1=Feeder2_1502 Bus2=Feeder2_1525 Linecode=3c_300_SAC_XC Length=0.0043446 phases=3 Units=km
New Line.Feeder2_LINE137 Bus1=Feeder2_1525 Bus2=Feeder2_1716 Linecode=35_SAC_XC Length=0.020923 phases=3 Units=km
New Line.Feeder2_LINE138 Bus1=Feeder2_1525 Bus2=Feeder2_1537 Linecode=3c_300_SAC_XC Length=0.004862 phases=3 Units=km
New Line.Feeder2_LINE139 Bus1=Feeder2_1537 Bus2=Feeder2_1645 Linecode=35_SAC_XC Length=0.006519 phases=3 Units=km
New Line.Feeder2_LINE140 Bus1=Feeder2_1537 Bus2=Feeder2_1561 Linecode=3c_300_SAC_XC Length=0.0055107 phases=3 Units=km
New Line.Feeder2_LINE141 Bus1=Feeder2_1561 Bus2=Feeder2_1657 Linecode=35_SAC_XC Length=0.0064481 phases=3 Units=km
New Line.Feeder2_LINE142 Bus1=Feeder2_1561 Bus2=Feeder2_1570 Linecode=3c_300_SAC_XC Length=0.0023783 phases=3 Units=km
New Line.Feeder2_LINE143 Bus1=Feeder2_1570 Bus2=Feeder2_1756 Linecode=35_SAC_XC Length=0.022912 phases=3 Units=km
New Line.Feeder2_LINE144 Bus1=Feeder2_1570 Bus2=Feeder2_1588 Linecode=3c_300_SAC_XC Length=0.0022224 phases=3 Units=km
New Line.Feeder2_LINE145 Bus1=Feeder2_1588 Bus2=Feeder2_1628 Linecode=35_SAC_XC Length=0.0064244 phases=3 Units=km
New Line.Feeder2_LINE146 Bus1=Feeder2_1588 Bus2=Feeder2_1598 Linecode=3c_300_SAC_XC Length=0.0028075 phases=3 Units=km
New Line.Feeder2_LINE147 Bus1=Feeder2_1598 Bus2=Feeder2_1816 Linecode=35_SAC_XC Length=0.029631 phases=3 Units=km
New Line.Feeder2_LINE148 Bus1=Feeder2_1598 Bus2=Feeder2_1765 Linecode=35_SAC_XC Length=0.019855 phases=3 Units=km
New Line.Feeder2_LINE149 Bus1=Feeder2_1598 Bus2=Feeder2_1641 Linecode=3c_300_SAC_XC Length=0.013776 phases=3 Units=km
New Line.Feeder2_LINE150 Bus1=Feeder2_1641 Bus2=Feeder2_1689 Linecode=3c_300_SAC_XC Length=0.01172 phases=3 Units=km
New Line.Feeder2_LINE151 Bus1=Feeder2_1641 Bus2=Feeder2_1744 Linecode=35_SAC_XC Length=0.0048391 phases=3 Units=km
New Line.Feeder2_LINE152 Bus1=Feeder2_1689 Bus2=Feeder2_1817 Linecode=3c_300_SAC_XC Length=0.014641 phases=3 Units=km
New Line.Feeder2_LINE153 Bus1=Feeder2_1689 Bus2=Feeder2_1779 Linecode=35_SAC_XC Length=0.0078593 phases=3 Units=km
New Line.Feeder2_LINE154 Bus1=Feeder2_1689 Bus2=Feeder2_1800 Linecode=35_SAC_XC Length=0.011695 phases=3 Units=km
New Line.Feeder2_LINE155 Bus1=Feeder2_1689 Bus2=Feeder2_1818 Linecode=35_SAC_XC Length=0.016462 phases=3 Units=km
New Line.Feeder2_LINE156 Bus1=Feeder2_1744 Bus2=Feeder2_1753 Linecode=35_SAC_XC Length=0.015395 phases=3 Units=km
New Line.Feeder2_LINE157 Bus1=Feeder2_1744 Bus2=Feeder2_1754 Linecode=35_SAC_XC Length=0.0033422 phases=3 Units=km
